tests/powsybl/grids/ieee14.raw
0,100.0,35,0,0,50.0
Mon, 4 May 2026 19:01:55 -0400 network

0 / END OF SYSTEM-WIDE DATA, BEGIN BUS DATA
1,'VL-1_0',1.0,3,1,1,1,1.0,0.0,1.06,0.94,1.06,0.94
2,'VL-10_0',1.0,1,1,1,1,1.0,0.0,1.06,0.94,1.06,0.94
3,'VL-11_0',1.0,1,1,1,1,1.0,0.0,1.06,0.94,1.06,0.94
4,'VL-12_0',1.0,1,1,1,1,1.0,0.0,1.06,0.94,1.06,0.94
5,'VL-13_0',1.0,1,1,1,1,1.0,0.0,1.06,0.94,1.06,0.94
6,'VL-14_0',1.0,1,1,1,1,1.0,0.0,1.06,0.94,1.06,0.94
7,'VL-2_0',1.0,2,1,1,1,1.0,0.0,1.06,0.94,1.06,0.94
8,'VL-3_0',1.0,2,1,1,1,1.0,0.0,1.06,0.94,1.06,0.94
9,'VL-4_0',1.0,1,1,1,1,1.0,0.0,1.06,0.94,1.06,0.94
10,'VL-4_1',1.0,1,1,1,1,1.0,0.0,1.06,0.94,1.06,0.94
11,'VL-4_2',1.0,1,1,1,1,1.0,0.0,1.06,0.94,1.06,0.94
12,'VL-5_0',1.0,1,1,1,1,1.0,0.0,1.06,0.94,1.06,0.94
13,'VL-5_1',1.0,2,1,1,1,1.0,0.0,1.06,0.94,1.06,0.94
14,'VL-8_0',1.0,2,1,1,1,1.0,0.0,1.06,0.94,1.06,0.94
0 / END OF BUS DATA, BEGIN LOAD DATA
2,'01',1,1,1,9.0,5.8,0.0,0.0,0.0,0.0,1,1,0,0.0,0.0,0,''
3,'01',1,1,1,3.5000000000000004,1.8000000000000003,0.0,0.0,0.0,0.0,1,1,0,0.0,0.0,0,''
4,'01',1,1,1,6.1,1.6,0.0,0.0,0.0,0.0,1,1,0,0.0,0.0,0,''
5,'01',1,1,1,13.5,5.8,0.0,0.0,0.0,0.0,1,1,0,0.0,0.0,0,''
6,'01',1,1,1,14.899999999999999,5.0,0.0,0.0,0.0,0.0,1,1,0,0.0,0.0,0,''
7,'01',1,1,1,21.7,12.7,0.0,0.0,0.0,0.0,1,1,0,0.0,0.0,0,''
8,'01',1,1,1,94.2,19.0,0.0,0.0,0.0,0.0,1,1,0,0.0,0.0,0,''
9,'01',1,1,1,47.8,-3.9,0.0,0.0,0.0,0.0,1,1,0,0.0,0.0,0,''
11,'01',1,1,1,29.5,16.6,0.0,0.0,0.0,0.0,1,1,0,0.0,0.0,0,''
12,'01',1,1,1,7.6,1.6,0.0,0.0,0.0,0.0,1,1,0,0.0,0.0,0,''
13,'01',1,1,1,11.2,7.5,0.0,0.0,0.0,0.0,1,1,0,0.0,0.0,0,''
0 / END OF LOAD DATA, BEGIN FIXED SHUNT DATA
11,'01',1,0.0,19.0
0 / END OF FIXED SHUNT DATA, BEGIN GENERATOR DATA
1,'01',170.0,5.0,10.0,0.0,1.0,0,0,100.0,0.0,1.0,0.0,0.0,1.0,1,100.0,340.0,0.0,0,1,1.0,0,1.0,0,1.0,0,1.0,0,1.0
7,'01',29.5,0.0,30.0,-30.0,1.0,0,0,100.0,0.0,1.0,0.0,0.0,1.0,1,100.0,59.0,0.0,0,1,1.0,0,1.0,0,1.0,0,1.0,0,1.0
8,'01',0.0,20.0,40.0,0.0,1.0,0,0,100.0,0.0,1.0,0.0,0.0,1.0,1,100.0,0.0,0.0,0,1,1.0,0,1.0,0,1.0,0,1.0,0,1.0
13,'01',0.0,9.0,24.0,-6.0,1.0,0,0,100.0,0.0,1.0,0.0,0.0,1.0,1,100.0,0.0,0.0,0,1,1.0,0,1.0,0,1.0,0,1.0,0,1.0
14,'01',0.0,9.0,24.0,-6.0,1.0,0,0,100.0,0.0,1.0,0.0,0.0,1.0,1,100.0,0.0,0.0,0,1,1.0,0,1.0,0,1.0,0,1.0,0,1.0
0 / END OF GENERATOR DATA, BEGIN BRANCH DATA
1,7,'01',0.01938,0.05917,0.0,'LINE-1-2',472.0,472.0,0.0,0.0,0.0,0.0,0.0,0.0,0.0,0.0,0.0,0.0,0.0,0.0264,0.0,0.0264,1,1,0.0,1,1.0,0,1.0,0,1.0,0,1.0
1,12,'01',0.05403000000000001,0.22304,0.0,'LINE-1-5',128.0,128.0,0.0,0.0,0.0,0.0,0.0,0.0,0.0,0.0,0.0,0.0,0.0,0.0246,0.0,0.0246,1,1,0.0,1,1.0,0,1.0,0,1.0,0,1.0
2,3,'01',0.08205,0.19207,0.0,'LINE-10-11',141.0,141.0,0.0,0.0,0.0,0.0,0.0,0.0,0.0,0.0,0.0,0.0,0.0,0.0,0.0,0.0,1,1,0.0,1,1.0,0,1.0,0,1.0,0,1.0
4,5,'01',0.22092,0.19988000000000003,0.0,'LINE-12-13',99.0,99.0,0.0,0.0,0.0,0.0,0.0,0.0,0.0,0.0,0.0,0.0,0.0,0.0,0.0,0.0,1,1,0.0,1,1.0,0,1.0,0,1.0,0,1.0
5,6,'01',0.17093,0.34802,0.0,'LINE-13-14',76.0,76.0,0.0,0.0,0.0,0.0,0.0,0.0,0.0,0.0,0.0,0.0,0.0,0.0,0.0,0.0,1,1,0.0,1,1.0,0,1.0,0,1.0,0,1.0
7,8,'01',0.04699,0.19797,0.0,'LINE-2-3',145.0,145.0,0.0,0.0,0.0,0.0,0.0,0.0,0.0,0.0,0.0,0.0,0.0,0.0219,0.0,0.0219,1,1,0.0,1,1.0,0,1.0,0,1.0,0,1.0
7,9,'01',0.058109999999999995,0.17632,0.0,'LINE-2-4',158.0,158.0,0.0,0.0,0.0,0.0,0.0,0.0,0.0,0.0,0.0,0.0,0.0,0.017,0.0,0.017,1,1,0.0,1,1.0,0,1.0,0,1.0,0,1.0
7,12,'01',0.05695,0.17388,0.0,'LINE-2-5',161.0,161.0,0.0,0.0,0.0,0.0,0.0,0.0,0.0,0.0,0.0,0.0,0.0,0.0173,0.0,0.0173,1,1,0.0,1,1.0,0,1.0,0,1.0,0,1.0
8,9,'01',0.06701,0.17103,0.0,'LINE-3-4',160.0,160.0,0.0,0.0,0.0,0.0,0.0,0.0,0.0,0.0,0.0,0.0,0.0,0.0064,0.0,0.0064,1,1,0.0,1,1.0,0,1.0,0,1.0,0,1.0
9,12,'01',0.013350000000000002,0.04211,0.0,'LINE-4-5',664.0,664.0,0.0,0.0,0.0,0.0,0.0,0.0,0.0,0.0,0.0,0.0,0.0,0.0,0.0,0.0,1,1,0.0,1,1.0,0,1.0,0,1.0,0,1.0
10,11,'01',0.0,0.11001,0.0,'LINE-7-9',267.0,267.0,0.0,0.0,0.0,0.0,0.0,0.0,0.0,0.0,0.0,0.0,0.0,0.0,0.0,0.0,1,1,0.0,1,1.0,0,1.0,0,1.0,0,1.0
10,14,'01',0.0,0.17615,0.0,'LINE-7-8',167.0,167.0,0.0,0.0,0.0,0.0,0.0,0.0,0.0,0.0,0.0,0.0,0.0,0.0,0.0,0.0,1,1,0.0,1,1.0,0,1.0,0,1.0,0,1.0
11,2,'01',0.03181,0.0845,0.0,'LINE-9-10',325.0,325.0,0.0,0.0,0.0,0.0,0.0,0.0,0.0,0.0,0.0,0.0,0.0,0.0,0.0,0.0,1,1,0.0,1,1.0,0,1.0,0,1.0,0,1.0
11,6,'01',0.12711,0.27038,0.0,'LINE-9-14',99.0,99.0,0.0,0.0,0.0,0.0,0.0,0.0,0.0,0.0,0.0,0.0,0.0,0.0,0.0,0.0,1,1,0.0,1,1.0,0,1.0,0,1.0,0,1.0
13,3,'01',0.09498,0.1989,0.0,'LINE-6-11',134.0,134.0,0.0,0.0,0.0,0.0,0.0,0.0,0.0,0.0,0.0,0.0,0.0,0.0,0.0,0.0,1,1,0.0,1,1.0,0,1.0,0,1.0,0,1.0
13,4,'01',0.12291,0.25581,0.0,'LINE-6-12',104.0,104.0,0.0,0.0,0.0,0.0,0.0,0.0,0.0,0.0,0.0,0.0,0.0,0.0,0.0,0.0,1,1,0.0,1,1.0,0,1.0,0,1.0,0,1.0
13,5,'01',0.06615,0.13027,0.0,'LINE-6-13',200.99999999999997,200.99999999999997,0.0,0.0,0.0,0.0,0.0,0.0,0.0,0.0,0.0,0.0,0.0,0.0,0.0,0.0,1,1,0.0,1,1.0,0,1.0,0,1.0,0,1.0
0 / END OF BRANCH DATA, BEGIN SYSTEM SWITCHING DEVICE DATA
0 / END OF SYSTEM SWITCHING DEVICE DATA, BEGIN TRANSFORMER DATA
9,10,0,'01',1,1,1,0.0,0.0,2,'TWT-4-7',1,1,1.0,0,1.0,0,1.0,0,1.0,'            ',0
0.0,0.20912,100.0
0.978,0.0,0.0,141.0,141.0,0.0,0.0,0.0,0.0,0.0,0.0,0.0,0.0,0.0,0.0,0,0,0,1.1,0.9,1.1,0.9,33,0,0.0,0.0,0.0
1.0,0.0
9,11,0,'01',1,1,1,0.0,0.0,2,'TWT-4-9',1,1,1.0,0,1.0,0,1.0,0,1.0,'            ',0
0.0,0.55618,100.0
0.969,0.0,0.0,53.0,53.0,0.0,0.0,0.0,0.0,0.0,0.0,0.0,0.0,0.0,0.0,0,0,0,1.1,0.9,1.1,0.9,33,0,0.0,0.0,0.0
1.0,0.0
12,13,0,'01',1,1,1,0.0,0.0,2,'TWT-5-6',1,1,1.0,0,1.0,0,1.0,0,1.0,'            ',0
0.0,0.25202,100.0
0.932,0.0,0.0,117.0,117.0,0.0,0.0,0.0,0.0,0.0,0.0,0.0,0.0,0.0,0.0,0,0,0,1.1,0.9,1.1,0.9,33,0,0.0,0.0,0.0
1.0,0.0
0 / END OF TRANSFORMER DATA, BEGIN AREA DATA
0 / END OF AREA DATA, BEGIN TWO-TERMINAL DC DATA
0 / END OF TWO-TERMINAL DC DATA, BEGIN VOLTAGE SOURCE CONVERTER DATA
0 / END OF VOLTAGE SOURCE CONVERTER DATA, BEGIN IMPEDANCE CORRECTION DATA
0 / END OF IMPEDANCE CORRECTION DATA, BEGIN MULTI-TERMINAL DC DATA
0 / END OF MULTI-TERMINAL DC DATA, BEGIN MULTI-SECTION LINE DATA
0 / END OF MULTI-SECTION LINE DATA, BEGIN ZONE DATA
0 / END OF ZONE DATA, BEGIN INTER-AREA TRANSFER DATA
0 / END OF INTER-AREA TRANSFER DATA, BEGIN OWNER DATA
0 / END OF OWNER DATA, BEGIN FACTS CONTROL DEVICE DATA
0 / END OF FACTS CONTROL DEVICE DATA, BEGIN SWITCHED SHUNT DATA
0 / END OF SWITCHED SHUNT DATA, BEGIN GNE DEVICE DATA
0 / END OF GNE DEVICE DATA, BEGIN INDUCTION MACHINE DATA
0 / END OF INDUCTION MACHINE DATA, BEGIN SUBSTATION DATA
0 / END OF SUBSTATION DATA
Q
